File D:\GitHub\personal\MPT.Net\MPT\CSI\API\MPT.CSI.Serialize.SAP2000\model\test2.$2k was saved on m/d/yy at h:mm:ss
 
TABLE:  "ACTIVE DEGREES OF FREEDOM"
   UX=Yes   UY=Yes   UZ=Yes   RX=Yes   RY=Yes   RZ=Yes
 
TABLE:  "ANALYSIS OPTIONS"
   Solver=Advanced   SolverProc=Auto   Force32Bit=No   StiffCase=None   GeomMod=None   HingeOpt="In Elements"
 
TABLE:  "AUTO WAVE 3 - WAVE CHARACTERISTICS - GENERAL"
   WaveChar=Default   WaveType="From Theory"   KinFactor=1   SWaterDepth=45   WaveHeight=18   WavePeriod=12   WaveTheory=Linear
 
TABLE:  "CASE - MODAL 1 - GENERAL"
   Case=MODAL   ModeType=Eigen   MaxNumModes=12   MinNumModes=1   EigenShift=0   EigenCutoff=0   EigenTol=1E-09   AutoShift=Yes
 
TABLE:  "CASE - STATIC 1 - LOAD ASSIGNMENTS"
   Case=DEAD   LoadType="Load pattern"   LoadName=DEAD   LoadSF=1
   Case=ACASE1   LoadType="Load pattern"   LoadName=DEAD   LoadSF=1
 
TABLE:  "CASE - STATIC 2 - NONLINEAR LOAD APPLICATION"
   Case=ACASE1   LoadApp="Displ Ctrl"   DisplType=Monitored   TargetDispl=0.24   MonitorDOF=U1   MonitorJt=3
 
TABLE:  "CASE - STATIC 4 - NONLINEAR PARAMETERS"
   Case=ACASE1   GeoNonLin=None   ResultsSave="Final State"   MaxTotal=200   MaxNull=50   UseEvStep=Yes   EvLumpTol=0.01   MaxEvPerStp=24   UseIter=Yes   MaxIterCS=10   MaxIterNR=40   ItConvTol=0.0001   UseLineSrch=Yes   LSPerIter=20 _
        LSTol=0.1   LSStepFact=1.618   TFMaxIter=10   TFTol=0.01   TFAccelFact=1   TFNoStop=No
 
TABLE:  "CASE - STATIC 7 - ADDITIONAL CONTROLLED DISPLACEMENTS"
   Case=ACASE1   Joint=1   DOF=U1
 
TABLE:  "COMBINATION DEFINITIONS"
   ComboName=COMB1   ComboType="Linear Add"   AutoDesign=No   CaseName=ACASE1   ScaleFactor=1   SteelDesign=None   ConcDesign=None   AlumDesign=None   ColdDesign=None   GUID=ddac89ed-9b87-4c05-943e-fbed1aaa459f
 
TABLE:  "CONNECTIVITY - FRAME"
   Frame=1   JointI=1   JointJ=2   IsCurved=No   GUID=05cf6f35-ca00-476a-bb52-d7d2dc6c6382
   Frame=2   JointI=2   JointJ=3   IsCurved=No   GUID=fcfbff76-60e3-40a3-9a54-9dd47fe49d37
   Frame=3   JointI=4   JointJ=5   IsCurved=No   GUID=bd3d7938-faa2-4b17-b03a-d7f2883fb56c
   Frame=4   JointI=5   JointJ=6   IsCurved=No   GUID=c30355b8-066b-4b21-8660-9fa290dc606b
   Frame=5   JointI=7   JointJ=8   IsCurved=No   GUID=0a9dde38-2fc2-429a-aefe-df14c832d89d
   Frame=6   JointI=8   JointJ=9   IsCurved=No   GUID=9a2749d7-ad5b-4419-993d-0eba4e28a41a
   Frame=7   JointI=10   JointJ=11   IsCurved=No   GUID=a6b724aa-8982-409d-b7c2-9c58b140c606
   Frame=8   JointI=11   JointJ=12   IsCurved=No   GUID=50d39a3c-3209-498c-8a6d-f759df72d9d1
   Frame=9   JointI=13   JointJ=14   IsCurved=No   GUID=f2eb37a4-c992-4160-9663-26aef996bea8
   Frame=10   JointI=14   JointJ=15   IsCurved=No   GUID=82566b0b-a409-4c4d-9e36-2ba2b1ccb8c9
   Frame=11   JointI=16   JointJ=17   IsCurved=No   GUID=d1ffc492-c536-491e-a76b-06cba789bc8a
   Frame=12   JointI=17   JointJ=18   IsCurved=No   GUID=22faaadf-e955-4388-bc70-bc571d419e02
   Frame=13   JointI=19   JointJ=20   IsCurved=No   GUID=3f1d7587-e136-45ee-8bdd-59cd2cc0dd9e
   Frame=14   JointI=20   JointJ=21   IsCurved=No   GUID=8713d06f-dafc-4753-8d64-2fc58e896f11
   Frame=15   JointI=22   JointJ=23   IsCurved=No   GUID=252ede23-cac1-43e7-ae3a-283c64c90c1b
   Frame=16   JointI=23   JointJ=24   IsCurved=No   GUID=76981acc-516f-41bb-8e1d-e0b477e1a9df
   Frame=17   JointI=25   JointJ=26   IsCurved=No   GUID=f6036cd9-2b27-4c3a-ae62-9299a1ffc295
   Frame=18   JointI=26   JointJ=27   IsCurved=No   GUID=679ffad3-9033-4a0f-9ed0-a65eadaf021d
   Frame=19   JointI=28   JointJ=29   IsCurved=No   GUID=5c59e8dd-6f8f-464b-8aa2-1f89bb7a0317
   Frame=20   JointI=29   JointJ=30   IsCurved=No   GUID=01da8c81-2c1a-4848-9c4b-1107bff6de38
   Frame=21   JointI=31   JointJ=32   IsCurved=No   GUID=7386f58c-1636-480c-a55f-ddbb5ce321f1
   Frame=22   JointI=32   JointJ=33   IsCurved=No   GUID=4ff07cae-9198-4d3c-bd77-c75186e5af2c
   Frame=23   JointI=34   JointJ=35   IsCurved=No   GUID=8ad49039-8b0e-4713-bb17-597a47ea73b0
   Frame=24   JointI=35   JointJ=36   IsCurved=No   GUID=86d3e9fb-814e-4b42-817e-12578ff7dde7
   Frame=25   JointI=2   JointJ=11   IsCurved=No   GUID=6a8f2652-f01a-49e2-876f-1cf3bd08a3ee
   Frame=26   JointI=3   JointJ=12   IsCurved=No   GUID=48881d3d-e7e2-4e5d-a4bb-c77db7c6091d
   Frame=27   JointI=11   JointJ=20   IsCurved=No   GUID=5c92593e-0a9e-4ba3-a04c-ff068f17b209
   Frame=28   JointI=12   JointJ=21   IsCurved=No   GUID=3992e55f-63cc-4d8b-8558-1faf87d5d19e
   Frame=29   JointI=20   JointJ=29   IsCurved=No   GUID=452946ef-64a6-436b-9b18-a777780a992c
   Frame=30   JointI=21   JointJ=30   IsCurved=No   GUID=a5980f15-47b8-4f22-8ca5-eb781a628896
   Frame=31   JointI=5   JointJ=14   IsCurved=No   GUID=318e1325-18b4-4b83-8193-525d4e56c333
   Frame=32   JointI=6   JointJ=15   IsCurved=No   GUID=4bc538ee-a05d-4029-af9b-a4950c960589
   Frame=33   JointI=14   JointJ=23   IsCurved=No   GUID=4500fdc1-0f61-4f84-ba39-2f06b11aeda4
   Frame=34   JointI=15   JointJ=24   IsCurved=No   GUID=c6a34263-87bd-4eb9-9fa4-e3f4c41fd948
   Frame=35   JointI=23   JointJ=32   IsCurved=No   GUID=5e1264d0-b146-448d-b832-729f32392c30
   Frame=36   JointI=24   JointJ=33   IsCurved=No   GUID=18bb1bff-5d62-4e70-a795-73e90b99dca7
   Frame=37   JointI=8   JointJ=17   IsCurved=No   GUID=8ab6f647-6113-40b4-bcc6-8e49ddb51a83
   Frame=38   JointI=9   JointJ=18   IsCurved=No   GUID=675988b1-94e9-47a1-bc04-ea4f289e7a6e
   Frame=39   JointI=17   JointJ=26   IsCurved=No   GUID=c5a4f0de-84cd-4ba5-96d5-96c50f22b4c1
   Frame=40   JointI=18   JointJ=27   IsCurved=No   GUID=5dd5dd32-0b26-4a5f-aee8-dc8868d2a61a
   Frame=41   JointI=26   JointJ=35   IsCurved=No   GUID=6762ce44-2d29-4756-b26f-9981b8ffcdcd
   Frame=42   JointI=27   JointJ=36   IsCurved=No   GUID=3f7439bd-99a9-4fdb-a60f-b85cb56b3917
   Frame=43   JointI=2   JointJ=5   IsCurved=No   GUID=5712b2af-462b-4077-97ce-1dbce09a8bb4
   Frame=44   JointI=3   JointJ=6   IsCurved=No   GUID=4cf519c6-6063-4054-82f7-fcbc53172738
   Frame=45   JointI=5   JointJ=8   IsCurved=No   GUID=569520d1-6042-4f45-b777-a8bbfdc6102a
   Frame=46   JointI=6   JointJ=9   IsCurved=No   GUID=907b3b92-997c-4671-9be2-ce2857615901
   Frame=47   JointI=11   JointJ=14   IsCurved=No   GUID=537009bf-79aa-4849-bde6-eadc2a79061f
   Frame=48   JointI=12   JointJ=15   IsCurved=No   GUID=6b23a6a3-12f4-4ab5-89c9-f55bae72d085
   Frame=49   JointI=14   JointJ=17   IsCurved=No   GUID=d9daefdd-0b41-4d1c-951c-a6a095f153ec
   Frame=50   JointI=15   JointJ=18   IsCurved=No   GUID=04c5956b-4376-47b3-a3f8-17ab6d682864
   Frame=51   JointI=20   JointJ=23   IsCurved=No   GUID=bd4abf0a-38c2-4dac-8416-43c2e61d9881
   Frame=52   JointI=21   JointJ=24   IsCurved=No   GUID=3816bda8-d1c3-4740-bc86-0929af19592d
   Frame=53   JointI=23   JointJ=26   IsCurved=No   GUID=f5a69dd2-86bc-4d91-8e0a-587ae54d8277
   Frame=54   JointI=24   JointJ=27   IsCurved=No   GUID=219560e0-75aa-4ce4-934a-c51466982b32
   Frame=55   JointI=29   JointJ=32   IsCurved=No   GUID=bc16e883-4ea3-49c9-8dc2-893609f8ec2d
   Frame=56   JointI=30   JointJ=33   IsCurved=No   GUID=8585f10b-2ae9-470f-8a68-47420d80a3fa
   Frame=57   JointI=32   JointJ=35   IsCurved=No   GUID=820e3293-e7f5-40d6-925c-d3ac46111bf7
   Frame=58   JointI=33   JointJ=36   IsCurved=No   GUID=59a3ba80-6a84-4b69-94db-b613d057705a
 
TABLE:  "COORDINATE SYSTEMS"
   Name=GLOBAL   Type=Cartesian   X=0   Y=0   Z=0   AboutZ=0   AboutY=0   AboutX=0
 
TABLE:  "DATABASE DOCUMENTATION"
 
TABLE:  "DATABASE FORMAT TYPES"
   UnitsCurr=Yes   OverrideE=No
 
TABLE:  "FRAME AUTO MESH ASSIGNMENTS"
   Frame=1   AutoMesh=Yes   AtJoints=Yes   AtFrames=No   NumSegments=0   MaxLength=0   MaxDegrees=0
   Frame=2   AutoMesh=Yes   AtJoints=Yes   AtFrames=No   NumSegments=0   MaxLength=0   MaxDegrees=0
   Frame=3   AutoMesh=Yes   AtJoints=Yes   AtFrames=No   NumSegments=0   MaxLength=0   MaxDegrees=0
   Frame=4   AutoMesh=Yes   AtJoints=Yes   AtFrames=No   NumSegments=0   MaxLength=0   MaxDegrees=0
   Frame=5   AutoMesh=Yes   AtJoints=Yes   AtFrames=No   NumSegments=0   MaxLength=0   MaxDegrees=0
   Frame=6   AutoMesh=Yes   AtJoints=Yes   AtFrames=No   NumSegments=0   MaxLength=0   MaxDegrees=0
   Frame=7   AutoMesh=Yes   AtJoints=Yes   AtFrames=No   NumSegments=0   MaxLength=0   MaxDegrees=0
   Frame=8   AutoMesh=Yes   AtJoints=Yes   AtFrames=No   NumSegments=0   MaxLength=0   MaxDegrees=0
   Frame=9   AutoMesh=Yes   AtJoints=Yes   AtFrames=No   NumSegments=0   MaxLength=0   MaxDegrees=0
   Frame=10   AutoMesh=Yes   AtJoints=Yes   AtFrames=No   NumSegments=0   MaxLength=0   MaxDegrees=0
   Frame=11   AutoMesh=Yes   AtJoints=Yes   AtFrames=No   NumSegments=0   MaxLength=0   MaxDegrees=0
   Frame=12   AutoMesh=Yes   AtJoints=Yes   AtFrames=No   NumSegments=0   MaxLength=0   MaxDegrees=0
   Frame=13   AutoMesh=Yes   AtJoints=Yes   AtFrames=No   NumSegments=0   MaxLength=0   MaxDegrees=0
   Frame=14   AutoMesh=Yes   AtJoints=Yes   AtFrames=No   NumSegments=0   MaxLength=0   MaxDegrees=0
   Frame=15   AutoMesh=Yes   AtJoints=Yes   AtFrames=No   NumSegments=0   MaxLength=0   MaxDegrees=0
   Frame=16   AutoMesh=Yes   AtJoints=Yes   AtFrames=No   NumSegments=0   MaxLength=0   MaxDegrees=0
   Frame=17   AutoMesh=Yes   AtJoints=Yes   AtFrames=No   NumSegments=0   MaxLength=0   MaxDegrees=0
   Frame=18   AutoMesh=Yes   AtJoints=Yes   AtFrames=No   NumSegments=0   MaxLength=0   MaxDegrees=0
   Frame=19   AutoMesh=Yes   AtJoints=Yes   AtFrames=No   NumSegments=0   MaxLength=0   MaxDegrees=0
   Frame=20   AutoMesh=Yes   AtJoints=Yes   AtFrames=No   NumSegments=0   MaxLength=0   MaxDegrees=0
# ... 38 like lines cut
 
TABLE:  "FRAME DESIGN PROCEDURES"
   Frame=1   DesignProc="From Material"
   Frame=2   DesignProc="From Material"
   Frame=3   DesignProc="From Material"
   Frame=4   DesignProc="From Material"
   Frame=5   DesignProc="From Material"
   Frame=6   DesignProc="From Material"
   Frame=7   DesignProc="From Material"
   Frame=8   DesignProc="From Material"
   Frame=9   DesignProc="From Material"
   Frame=10   DesignProc="From Material"
   Frame=11   DesignProc="From Material"
   Frame=12   DesignProc="From Material"
   Frame=13   DesignProc="From Material"
   Frame=14   DesignProc="From Material"
   Frame=15   DesignProc="From Material"
   Frame=16   DesignProc="From Material"
   Frame=17   DesignProc="From Material"
   Frame=18   DesignProc="From Material"
   Frame=19   DesignProc="From Material"
   Frame=20   DesignProc="From Material"
# ... 4 like lines cut
   Frame=25   DesignProc="No Design"
   Frame=26   DesignProc="From Material"
   Frame=27   DesignProc="From Material"
   Frame=28   DesignProc="From Material"
   Frame=29   DesignProc="From Material"
   Frame=30   DesignProc="From Material"
   Frame=31   DesignProc="From Material"
   Frame=32   DesignProc="From Material"
   Frame=33   DesignProc="From Material"
   Frame=34   DesignProc="From Material"
   Frame=35   DesignProc="From Material"
   Frame=36   DesignProc="From Material"
   Frame=37   DesignProc="From Material"
   Frame=38   DesignProc="From Material"
   Frame=39   DesignProc="From Material"
   Frame=40   DesignProc="From Material"
   Frame=41   DesignProc="From Material"
   Frame=42   DesignProc="From Material"
   Frame=43   DesignProc="From Material"
   Frame=44   DesignProc="From Material"
   Frame=45   DesignProc="From Material"
# ... 13 like lines cut
 
TABLE:  "FRAME HINGE ASSIGNS 02 - USER DEFINED PROPERTIES"
   Frame=38   AssignProp=FH1   DistType=RelDist   RelDist=0   AbsDist=0   ActualDist=0
 
TABLE:  "FRAME HINGE ASSIGNS 09 - HINGE OVERWRITES"
   Frame=38   AutoDivide=No   NoLoadDrop=No   LimNegStiff=10
 
TABLE:  "FRAME LOAD TRANSFER OPTIONS"
   Frame=1   Transfer=Yes
   Frame=2   Transfer=Yes
   Frame=3   Transfer=Yes
   Frame=4   Transfer=Yes
   Frame=5   Transfer=Yes
   Frame=6   Transfer=Yes
   Frame=7   Transfer=Yes
   Frame=8   Transfer=Yes
   Frame=9   Transfer=Yes
   Frame=10   Transfer=Yes
   Frame=11   Transfer=Yes
   Frame=12   Transfer=Yes
   Frame=13   Transfer=Yes
   Frame=14   Transfer=Yes
   Frame=15   Transfer=Yes
   Frame=16   Transfer=Yes
   Frame=17   Transfer=Yes
   Frame=18   Transfer=Yes
   Frame=19   Transfer=Yes
   Frame=20   Transfer=Yes
# ... 38 like lines cut
 
TABLE:  "FRAME OUTPUT STATION ASSIGNMENTS"
   Frame=1   StationType=MinNumSta   MinNumSta=3   AddAtElmInt=Yes   AddAtPtLoad=Yes
   Frame=2   StationType=MinNumSta   MinNumSta=3   AddAtElmInt=Yes   AddAtPtLoad=Yes
   Frame=3   StationType=MinNumSta   MinNumSta=3   AddAtElmInt=Yes   AddAtPtLoad=Yes
   Frame=4   StationType=MinNumSta   MinNumSta=3   AddAtElmInt=Yes   AddAtPtLoad=Yes
   Frame=5   StationType=MinNumSta   MinNumSta=3   AddAtElmInt=Yes   AddAtPtLoad=Yes
   Frame=6   StationType=MinNumSta   MinNumSta=3   AddAtElmInt=Yes   AddAtPtLoad=Yes
   Frame=7   StationType=MinNumSta   MinNumSta=3   AddAtElmInt=Yes   AddAtPtLoad=Yes
   Frame=8   StationType=MinNumSta   MinNumSta=3   AddAtElmInt=Yes   AddAtPtLoad=Yes
   Frame=9   StationType=MinNumSta   MinNumSta=3   AddAtElmInt=Yes   AddAtPtLoad=Yes
   Frame=10   StationType=MinNumSta   MinNumSta=3   AddAtElmInt=Yes   AddAtPtLoad=Yes
   Frame=11   StationType=MinNumSta   MinNumSta=3   AddAtElmInt=Yes   AddAtPtLoad=Yes
   Frame=12   StationType=MinNumSta   MinNumSta=3   AddAtElmInt=Yes   AddAtPtLoad=Yes
   Frame=13   StationType=MinNumSta   MinNumSta=3   AddAtElmInt=Yes   AddAtPtLoad=Yes
   Frame=14   StationType=MinNumSta   MinNumSta=3   AddAtElmInt=Yes   AddAtPtLoad=Yes
   Frame=15   StationType=MinNumSta   MinNumSta=3   AddAtElmInt=Yes   AddAtPtLoad=Yes
   Frame=16   StationType=MinNumSta   MinNumSta=3   AddAtElmInt=Yes   AddAtPtLoad=Yes
   Frame=17   StationType=MinNumSta   MinNumSta=3   AddAtElmInt=Yes   AddAtPtLoad=Yes
   Frame=18   StationType=MinNumSta   MinNumSta=3   AddAtElmInt=Yes   AddAtPtLoad=Yes
   Frame=19   StationType=MinNumSta   MinNumSta=3   AddAtElmInt=Yes   AddAtPtLoad=Yes
   Frame=20   StationType=MinNumSta   MinNumSta=3   AddAtElmInt=Yes   AddAtPtLoad=Yes
# ... 4 like lines cut
   Frame=25   StationType=MaxStaSpcg   MaxStaSpcg=0.5   AddAtElmInt=Yes   AddAtPtLoad=Yes
   Frame=26   StationType=MaxStaSpcg   MaxStaSpcg=0.5   AddAtElmInt=Yes   AddAtPtLoad=Yes
   Frame=27   StationType=MaxStaSpcg   MaxStaSpcg=0.5   AddAtElmInt=Yes   AddAtPtLoad=Yes
   Frame=28   StationType=MaxStaSpcg   MaxStaSpcg=0.5   AddAtElmInt=Yes   AddAtPtLoad=Yes
   Frame=29   StationType=MaxStaSpcg   MaxStaSpcg=0.5   AddAtElmInt=Yes   AddAtPtLoad=Yes
   Frame=30   StationType=MaxStaSpcg   MaxStaSpcg=0.5   AddAtElmInt=Yes   AddAtPtLoad=Yes
   Frame=31   StationType=MaxStaSpcg   MaxStaSpcg=0.5   AddAtElmInt=Yes   AddAtPtLoad=Yes
   Frame=32   StationType=MaxStaSpcg   MaxStaSpcg=0.5   AddAtElmInt=Yes   AddAtPtLoad=Yes
   Frame=33   StationType=MaxStaSpcg   MaxStaSpcg=0.5   AddAtElmInt=Yes   AddAtPtLoad=Yes
   Frame=34   StationType=MaxStaSpcg   MaxStaSpcg=0.5   AddAtElmInt=Yes   AddAtPtLoad=Yes
   Frame=35   StationType=MaxStaSpcg   MaxStaSpcg=0.5   AddAtElmInt=Yes   AddAtPtLoad=Yes
   Frame=36   StationType=MaxStaSpcg   MaxStaSpcg=0.5   AddAtElmInt=Yes   AddAtPtLoad=Yes
   Frame=37   StationType=MaxStaSpcg   MaxStaSpcg=0.5   AddAtElmInt=Yes   AddAtPtLoad=Yes
   Frame=38   StationType=MaxStaSpcg   MaxStaSpcg=0.5   AddAtElmInt=Yes   AddAtPtLoad=Yes
   Frame=39   StationType=MaxStaSpcg   MaxStaSpcg=0.5   AddAtElmInt=Yes   AddAtPtLoad=Yes
   Frame=40   StationType=MaxStaSpcg   MaxStaSpcg=0.5   AddAtElmInt=Yes   AddAtPtLoad=Yes
   Frame=41   StationType=MaxStaSpcg   MaxStaSpcg=0.5   AddAtElmInt=Yes   AddAtPtLoad=Yes
   Frame=42   StationType=MaxStaSpcg   MaxStaSpcg=0.5   AddAtElmInt=Yes   AddAtPtLoad=Yes
   Frame=43   StationType=MaxStaSpcg   MaxStaSpcg=0.5   AddAtElmInt=Yes   AddAtPtLoad=Yes
   Frame=44   StationType=MaxStaSpcg   MaxStaSpcg=0.5   AddAtElmInt=Yes   AddAtPtLoad=Yes
# ... 14 like lines cut
 
TABLE:  "FRAME SECTION ASSIGNMENTS"
   Frame=1   AutoSelect=N.A.   AnalSect=FSEC1   MatProp=Default
   Frame=2   AutoSelect=N.A.   AnalSect=FSEC1   MatProp=Default
   Frame=3   AutoSelect=N.A.   AnalSect=FSEC1   MatProp=Default
   Frame=4   AutoSelect=N.A.   AnalSect=FSEC1   MatProp=Default
   Frame=5   AutoSelect=N.A.   AnalSect=FSEC1   MatProp=Default
   Frame=6   AutoSelect=N.A.   AnalSect=FSEC1   MatProp=Default
   Frame=7   AutoSelect=N.A.   AnalSect=FSEC1   MatProp=Default
   Frame=8   AutoSelect=N.A.   AnalSect=FSEC1   MatProp=Default
   Frame=9   AutoSelect=N.A.   AnalSect=FSEC1   MatProp=Default
   Frame=10   AutoSelect=N.A.   AnalSect=FSEC1   MatProp=Default
   Frame=11   AutoSelect=N.A.   AnalSect=FSEC1   MatProp=Default
   Frame=12   AutoSelect=N.A.   AnalSect=FSEC1   MatProp=Default
   Frame=13   AutoSelect=N.A.   AnalSect=FSEC1   MatProp=Default
   Frame=14   AutoSelect=N.A.   AnalSect=FSEC1   MatProp=Default
   Frame=15   AutoSelect=N.A.   AnalSect=FSEC1   MatProp=Default
   Frame=16   AutoSelect=N.A.   AnalSect=FSEC1   MatProp=Default
   Frame=17   AutoSelect=N.A.   AnalSect=FSEC1   MatProp=Default
   Frame=18   AutoSelect=N.A.   AnalSect=FSEC1   MatProp=Default
   Frame=19   AutoSelect=N.A.   AnalSect=FSEC1   MatProp=Default
   Frame=20   AutoSelect=N.A.   AnalSect=FSEC1   MatProp=Default
# ... 4 like lines cut
   Frame=25   AutoSelect=N.A.   AnalSect=FSEC1   MatProp=4000Psi
   Frame=26   AutoSelect=N.A.   AnalSect=FSEC1   MatProp=Default
   Frame=27   AutoSelect=N.A.   AnalSect=FSEC1   MatProp=Default
   Frame=28   AutoSelect=N.A.   AnalSect=FSEC1   MatProp=Default
   Frame=29   AutoSelect=N.A.   AnalSect=FSEC1   MatProp=Default
   Frame=30   AutoSelect=N.A.   AnalSect=FSEC1   MatProp=Default
   Frame=31   AutoSelect=N.A.   AnalSect=FSEC1   MatProp=Default
   Frame=32   AutoSelect=N.A.   AnalSect=FSEC1   MatProp=Default
   Frame=33   AutoSelect=N.A.   AnalSect=FSEC1   MatProp=Default
   Frame=34   AutoSelect=N.A.   AnalSect=FSEC1   MatProp=Default
   Frame=35   AutoSelect=N.A.   AnalSect=FSEC1   MatProp=Default
   Frame=36   AutoSelect=N.A.   AnalSect=FSEC1   MatProp=Default
   Frame=37   AutoSelect=N.A.   AnalSect=FSEC1   MatProp=Default
   Frame=38   AutoSelect=N.A.   AnalSect=FSEC1   MatProp=Default
   Frame=39   AutoSelect=N.A.   AnalSect=FSEC1   MatProp=Default
   Frame=40   AutoSelect=N.A.   AnalSect=FSEC1   MatProp=Default
   Frame=41   AutoSelect=N.A.   AnalSect=FSEC1   MatProp=Default
   Frame=42   AutoSelect=N.A.   AnalSect=FSEC1   MatProp=Default
   Frame=43   AutoSelect=N.A.   AnalSect=FSEC1   MatProp=Default
   Frame=44   AutoSelect=N.A.   AnalSect=FSEC1   MatProp=Default
   Frame=45   AutoSelect=N.A.   AnalSect=FSEC1   MatProp=Default
# ... 13 like lines cut
 
TABLE:  "FRAME SECTION PROPERTIES 01 - GENERAL"
   SectionName=FSEC1   Material=A992Fy50   Shape="I/Wide Flange"   t3=0.3048   t2=0.127   tf=0.009652   tw=0.00635   t2b=0.127   tfb=0.009652   Area=0.0042645076   TorsConst=9.65117678053953E-08   I33=6.5724174702235E-05 _
        I22=3.30125717301008E-06   I23=0   AS2=0.00193548   AS3=0.00204300666666667   S33=0.00043126098885981   S22=5.19883019371667E-05   Z33=0.0004911874950424   Z22=8.0716532115E-05   R33=0.124144683132414   R22=0.0278230817990979 _
        Color=Gray8Dark   FromFile=No   AMod=1   A2Mod=1   A3Mod=1   JMod=1   I2Mod=1   I3Mod=1   MMod=1   WMod=1   Notes="Added 1/22/2019 9:28:03 PM"
 
TABLE:  "FRAME SECTION PROPERTIES 13 - TIME DEPENDENT"
   SectionName=FSEC1   TypeSize=Auto   AutoSFSize=1
 
TABLE:  "FUNCTION - PLOT FUNCTIONS"
   PlotFunc="Input Energy"   Type=Energy   Component=Input   Mode=All
 
TABLE:  "FUNCTION - POWER SPECTRAL DENSITY - USER"
   Name=UNIFPSD   Frequency=0   Value=1
   Name=UNIFPSD   Frequency=1   Value=1
 
TABLE:  "FUNCTION - RESPONSE SPECTRUM - USER"
   Name=UNIFRS   Period=0   Accel=1   FuncDamp=0.05
   Name=UNIFRS   Period=1   Accel=1
 
TABLE:  "FUNCTION - STEADY STATE - USER"
   Name=UNIFSS   Frequency=0   Value=1
   Name=UNIFSS   Frequency=1   Value=1
 
TABLE:  "FUNCTION - TIME HISTORY - USER"
   Name=RAMPTH   Time=0   Value=0
   Name=RAMPTH   Time=1   Value=1
   Name=RAMPTH   Time=4   Value=1
   Name=UNIFTH   Time=0   Value=1
   Name=UNIFTH   Time=1   Value=1
 
TABLE:  "GRID LINES"
   CoordSys=GLOBAL   AxisDir=X   GridID=A   XRYZCoord=-9   LineType=Primary   LineColor=Gray8Dark   Visible=Yes   BubbleLoc=End   AllVisible=Yes   BubbleSize=1.25
   CoordSys=GLOBAL   AxisDir=X   GridID=B   XRYZCoord=-3   LineType=Primary   LineColor=Gray8Dark   Visible=Yes   BubbleLoc=End
   CoordSys=GLOBAL   AxisDir=X   GridID=C   XRYZCoord=3   LineType=Primary   LineColor=Gray8Dark   Visible=Yes   BubbleLoc=End
   CoordSys=GLOBAL   AxisDir=X   GridID=D   XRYZCoord=9   LineType=Primary   LineColor=Gray8Dark   Visible=Yes   BubbleLoc=End
   CoordSys=GLOBAL   AxisDir=Y   GridID=1   XRYZCoord=-6   LineType=Primary   LineColor=Gray8Dark   Visible=Yes   BubbleLoc=Start
   CoordSys=GLOBAL   AxisDir=Y   GridID=2   XRYZCoord=0   LineType=Primary   LineColor=Gray8Dark   Visible=Yes   BubbleLoc=Start
   CoordSys=GLOBAL   AxisDir=Y   GridID=3   XRYZCoord=6   LineType=Primary   LineColor=Gray8Dark   Visible=Yes   BubbleLoc=Start
   CoordSys=GLOBAL   AxisDir=Z   GridID=Z1   XRYZCoord=0   LineType=Primary   LineColor=Gray8Dark   Visible=Yes   BubbleLoc=End
   CoordSys=GLOBAL   AxisDir=Z   GridID=Z2   XRYZCoord=3   LineType=Primary   LineColor=Gray8Dark   Visible=Yes   BubbleLoc=End
   CoordSys=GLOBAL   AxisDir=Z   GridID=Z3   XRYZCoord=6   LineType=Primary   LineColor=Gray8Dark   Visible=Yes   BubbleLoc=End
 
TABLE:  "GROUPS 1 - DEFINITIONS"
   GroupName=ALL   Selection=Yes   SectionCut=Yes   Steel=Yes   Concrete=Yes   Aluminum=Yes   ColdFormed=Yes   Stage=Yes   Bridge=Yes   AutoSeismic=No   AutoWind=No   SelDesSteel=No   SelDesAlum=No   SelDesCold=No   MassWeight=Yes   Color=Red
 
TABLE:  "HINGES DEF 02 - NONINTERACTING - DEFORM CONTROL - GENERAL"
   HingeName=FH1   DOFType="Axial P"   Symmetric=Yes   BeyondE="To Zero"   FDType=Force-Displ   UseYldForce=Yes   UseYldDispl=Yes   LengthType=Relative   SSRelLen=0.1   HysType=Isotropic
 
TABLE:  "HINGES DEF 03 - NONINTERACTING - DEFORM CONTROL - FORCE-DEFORM"
   HingeName=FH1   FDPoint=-E   Force=-0.2   Displ=-8
   HingeName=FH1   FDPoint=-D   Force=-0.2   Displ=-6
   HingeName=FH1   FDPoint=-C   Force=-1.25   Displ=-6
   HingeName=FH1   FDPoint=-B   Force=-1   Displ=0
   HingeName=FH1   FDPoint=A   Force=0   Displ=0
   HingeName=FH1   FDPoint=B   Force=1   Displ=0
   HingeName=FH1   FDPoint=C   Force=1.25   Displ=6
   HingeName=FH1   FDPoint=D   Force=0.2   Displ=6
   HingeName=FH1   FDPoint=E   Force=0.2   Displ=8
 
TABLE:  "HINGES DEF 04 - NONINTERACTING - DEFORM CONTROL - ACCEPTANCE"
   HingeName=FH1   ACPoint=IO   ACPos=2   ACNeg=-2
   HingeName=FH1   ACPoint=LS   ACPos=4   ACNeg=-4
   HingeName=FH1   ACPoint=CP   ACPos=6   ACNeg=-6
 
TABLE:  "JOINT COORDINATES"
   Joint=1   CoordSys=GLOBAL   CoordType=Cartesian   XorR=-9   Y=-6   Z=0   SpecialJt=No   GUID=e0d54e4a-33ff-4045-9312-4498fbbffea2
   Joint=2   CoordSys=GLOBAL   CoordType=Cartesian   XorR=-9   Y=-6   Z=3   SpecialJt=No   GUID=7f8c3b33-11ea-4708-b8e7-c747c133141f
   Joint=3   CoordSys=GLOBAL   CoordType=Cartesian   XorR=-9   Y=-6   Z=6   SpecialJt=No   GUID=50d4916e-804a-483b-9eb2-172e119f85b7
   Joint=4   CoordSys=GLOBAL   CoordType=Cartesian   XorR=-9   Y=0   Z=0   SpecialJt=No   GUID=14dbda08-a0cc-4293-8d88-5dcfb4bdf6c2
   Joint=5   CoordSys=GLOBAL   CoordType=Cartesian   XorR=-9   Y=0   Z=3   SpecialJt=No   GUID=c2bee3ab-5fda-4320-b2cc-5902a7402f55
   Joint=6   CoordSys=GLOBAL   CoordType=Cartesian   XorR=-9   Y=0   Z=6   SpecialJt=No   GUID=f42c3b8b-39af-4baf-a6e4-294bf2329d09
   Joint=7   CoordSys=GLOBAL   CoordType=Cartesian   XorR=-9   Y=6   Z=0   SpecialJt=No   GUID=91f5bf6f-e27c-4817-b8c2-3471d3f62500
   Joint=8   CoordSys=GLOBAL   CoordType=Cartesian   XorR=-9   Y=6   Z=3   SpecialJt=No   GUID=a0a9835b-862b-4762-8c5d-99a86ca058b3
   Joint=9   CoordSys=GLOBAL   CoordType=Cartesian   XorR=-9   Y=6   Z=6   SpecialJt=No   GUID=5d44c7f5-e5d5-41f4-aaa3-486380d30ed3
   Joint=10   CoordSys=GLOBAL   CoordType=Cartesian   XorR=-3   Y=-6   Z=0   SpecialJt=No   GUID=d3417c93-842b-45a0-ac99-23c52d6bb526
   Joint=11   CoordSys=GLOBAL   CoordType=Cartesian   XorR=-3   Y=-6   Z=3   SpecialJt=No   GUID=7f33fe3d-9d63-45aa-b627-bc2d1a65ef29
   Joint=12   CoordSys=GLOBAL   CoordType=Cartesian   XorR=-3   Y=-6   Z=6   SpecialJt=No   GUID=8f27a582-9f2d-4fd6-a0d1-ad3f1c2aa65f
   Joint=13   CoordSys=GLOBAL   CoordType=Cartesian   XorR=-3   Y=0   Z=0   SpecialJt=No   GUID=dcc08196-76c9-466b-8689-a0272e7fb90f
   Joint=14   CoordSys=GLOBAL   CoordType=Cartesian   XorR=-3   Y=0   Z=3   SpecialJt=No   GUID=dee2c599-bd22-47c7-ba20-57b12a0dc22d
   Joint=15   CoordSys=GLOBAL   CoordType=Cartesian   XorR=-3   Y=0   Z=6   SpecialJt=No   GUID=5fad92ec-31c2-4588-82df-6cb24e9ba949
   Joint=16   CoordSys=GLOBAL   CoordType=Cartesian   XorR=-3   Y=6   Z=0   SpecialJt=No   GUID=e3c25786-98b7-49a8-8bc5-40611d7e61ae
   Joint=17   CoordSys=GLOBAL   CoordType=Cartesian   XorR=-3   Y=6   Z=3   SpecialJt=No   GUID=4129ebe6-6b7a-493e-a11d-b2be6ae320fc
   Joint=18   CoordSys=GLOBAL   CoordType=Cartesian   XorR=-3   Y=6   Z=6   SpecialJt=No   GUID=b67e3c35-4de6-41fc-bf36-189bc7d5b40a
   Joint=19   CoordSys=GLOBAL   CoordType=Cartesian   XorR=3   Y=-6   Z=0   SpecialJt=No   GUID=1396046f-a665-49fe-a57c-ecc92ba8912b
   Joint=20   CoordSys=GLOBAL   CoordType=Cartesian   XorR=3   Y=-6   Z=3   SpecialJt=No   GUID=ddfc1511-7699-4a25-b9a0-3a4e717a6bf3
   Joint=21   CoordSys=GLOBAL   CoordType=Cartesian   XorR=3   Y=-6   Z=6   SpecialJt=No   GUID=1d3491d9-2da0-45f9-b8e2-23ceed3d1357
   Joint=22   CoordSys=GLOBAL   CoordType=Cartesian   XorR=3   Y=0   Z=0   SpecialJt=No   GUID=e27325f5-c0f4-4df5-9b3d-a1c01f2549a8
   Joint=23   CoordSys=GLOBAL   CoordType=Cartesian   XorR=3   Y=0   Z=3   SpecialJt=No   GUID=9171e126-9c55-42b9-bf23-27eae58ed8f9
   Joint=24   CoordSys=GLOBAL   CoordType=Cartesian   XorR=3   Y=0   Z=6   SpecialJt=No   GUID=a0b16e73-9024-46c5-a0bf-07b0a085c33a
   Joint=25   CoordSys=GLOBAL   CoordType=Cartesian   XorR=3   Y=6   Z=0   SpecialJt=No   GUID=1293e067-915c-4afe-a6b1-3a26b387f1bf
   Joint=26   CoordSys=GLOBAL   CoordType=Cartesian   XorR=3   Y=6   Z=3   SpecialJt=No   GUID=4c9d80b5-ffc0-42c4-9afe-e68ab23e3955
   Joint=27   CoordSys=GLOBAL   CoordType=Cartesian   XorR=3   Y=6   Z=6   SpecialJt=No   GUID=7bb6a3ad-f34c-4bb4-82dc-60c8a12ecbdc
   Joint=28   CoordSys=GLOBAL   CoordType=Cartesian   XorR=9   Y=-6   Z=0   SpecialJt=No   GUID=97b511aa-a881-4b82-a1e3-2cad94873af8
   Joint=29   CoordSys=GLOBAL   CoordType=Cartesian   XorR=9   Y=-6   Z=3   SpecialJt=No   GUID=b42c261f-5a54-4ab9-b05f-375e63558c56
   Joint=30   CoordSys=GLOBAL   CoordType=Cartesian   XorR=9   Y=-6   Z=6   SpecialJt=No   GUID=c98ec6f1-db3b-448b-818b-246f8c261bbc
   Joint=31   CoordSys=GLOBAL   CoordType=Cartesian   XorR=9   Y=0   Z=0   SpecialJt=No   GUID=e2e160e1-4407-49cf-a305-db3de0cbd846
   Joint=32   CoordSys=GLOBAL   CoordType=Cartesian   XorR=9   Y=0   Z=3   SpecialJt=No   GUID=5025b2d0-9d90-4c43-ac8c-c0dad8377a37
   Joint=33   CoordSys=GLOBAL   CoordType=Cartesian   XorR=9   Y=0   Z=6   SpecialJt=No   GUID=a28b09e9-56ac-49fe-b838-f7bff8a271ce
   Joint=34   CoordSys=GLOBAL   CoordType=Cartesian   XorR=9   Y=6   Z=0   SpecialJt=No   GUID=e9d62d69-7fb6-4c6c-9244-dacb4299ac22
   Joint=35   CoordSys=GLOBAL   CoordType=Cartesian   XorR=9   Y=6   Z=3   SpecialJt=No   GUID=d4328f9e-ad4a-42f8-af45-85740c1f66df
   Joint=36   CoordSys=GLOBAL   CoordType=Cartesian   XorR=9   Y=6   Z=6   SpecialJt=No   GUID=3a72e45e-ff5c-43ce-a2e6-16b5e35d0dfb
 
TABLE:  "JOINT PATTERN DEFINITIONS"
   Pattern=Default
 
TABLE:  "JOINT RESTRAINT ASSIGNMENTS"
   Joint=1   U1=Yes   U2=Yes   U3=Yes   R1=No   R2=No   R3=No
   Joint=4   U1=Yes   U2=Yes   U3=Yes   R1=No   R2=No   R3=No
   Joint=7   U1=Yes   U2=Yes   U3=Yes   R1=No   R2=No   R3=No
   Joint=10   U1=Yes   U2=Yes   U3=Yes   R1=No   R2=No   R3=No
   Joint=13   U1=Yes   U2=Yes   U3=Yes   R1=No   R2=No   R3=No
   Joint=16   U1=Yes   U2=Yes   U3=Yes   R1=No   R2=No   R3=No
   Joint=19   U1=Yes   U2=Yes   U3=Yes   R1=No   R2=No   R3=No
   Joint=22   U1=Yes   U2=Yes   U3=Yes   R1=No   R2=No   R3=No
   Joint=25   U1=Yes   U2=Yes   U3=Yes   R1=No   R2=No   R3=No
   Joint=28   U1=Yes   U2=Yes   U3=Yes   R1=No   R2=No   R3=No
   Joint=31   U1=Yes   U2=Yes   U3=Yes   R1=No   R2=No   R3=No
   Joint=34   U1=Yes   U2=Yes   U3=Yes   R1=No   R2=No   R3=No
 
TABLE:  "LOAD CASE DEFINITIONS"
   Case=DEAD   Type=LinStatic   InitialCond=Zero   DesTypeOpt="Prog Det"   DesignType=Dead   DesActOpt="Prog Det"   DesignAct=Non-Composite   AutoType=None   RunCase=Yes   GUID=2f38a159-5e3a-456c-9534-d2a62a84c410
   Case=MODAL   Type=LinModal   InitialCond=Zero   DesTypeOpt="Prog Det"   DesignType=Other   DesActOpt="Prog Det"   DesignAct=Other   AutoType=None   RunCase=Yes   GUID=647fc461-fc19-4aa3-8e0f-5860b34a53f5
   Case=ACASE1   Type=NonStatic   InitialCond=Zero   DesTypeOpt="Prog Det"   DesignType=Dead   DesActOpt="Prog Det"   DesignAct=Non-Composite   AutoType=None   RunCase=Yes   GUID=971e86f1-5c02-44a4-866f-4c6438ec5f66
 
TABLE:  "LOAD PATTERN DEFINITIONS"
   LoadPat=DEAD   DesignType=Dead   SelfWtMult=1   GUID=1e2e7524-9493-40fc-ba56-aac0719955f6
 
TABLE:  "MASS SOURCE"
   MassSource=MSSSRC1   Elements=Yes   Masses=Yes   Loads=No   IsDefault=Yes
   MassSource=MSSSRC2   Elements=Yes   Masses=Yes   Loads=Yes   IsDefault=No   LoadPat=DEAD   Multiplier=2
 
TABLE:  "MATERIAL PROPERTIES 01 - GENERAL"
   Material=4000Psi   Type=Concrete   SymType=Isotropic   TempDepend=No   Color=Yellow   Notes="Customary f'c 4000 psi 1/22/2019 9:27:59 PM"
   Material=A992Fy50   Type=Steel   SymType=Isotropic   TempDepend=No   Color=Magenta   Notes="ASTM A992 Grade 50 1/22/2019 9:27:59 PM"
 
TABLE:  "MATERIAL PROPERTIES 02 - BASIC MECHANICAL PROPERTIES"
   Material=4000Psi   UnitWeight=23.5631216161854   UnitMass=2.40276960558926   E1=24855578.0600518   G12=10356490.8583549   U12=0.2   A1=9.89999952793124E-06
   Material=A992Fy50   UnitWeight=76.9728639422648   UnitMass=7.84904737995992   E1=199947978.795958   G12=76903068.767676   U12=0.3   A1=1.16999994421006E-05
 
TABLE:  "MATERIAL PROPERTIES 03A - STEEL DATA"
   Material=A992Fy50   Fy=344737.894475789   Fu=448159.262818526   EffFy=379211.683923368   EffFu=492975.189100378   SSCurveOpt=Simple   SSHysType=Kinematic   SHard=0.015   SMax=0.11   SRup=0.17   FinalSlope=-0.1
 
TABLE:  "MATERIAL PROPERTIES 03B - CONCRETE DATA"
   Material=4000Psi   Fc=27579.0315580631   eFc=27579.0315580631   LtWtConc=No   SSCurveOpt=Mander   SSHysType=Takeda   SFc=0.00221914   SCap=0.005   FinalSlope=-0.1   FAngle=0   DAngle=0
 
TABLE:  "MATERIAL PROPERTIES 06 - DAMPING PARAMETERS"
   Material=4000Psi   ModalRatio=0   VisMass=0   VisStiff=0   HysMass=0   HysStiff=0
   Material=A992Fy50   ModalRatio=0   VisMass=0   VisStiff=0   HysMass=0   HysStiff=0
 
TABLE:  "NAMED SETS - DATABASE TABLES 1 - GENERAL"
   DBNamedSet=DB01   SortOrder="Elem, Cases"   Unformatted=No   ModeStart=1   ModeEnd=All   ModalHist=Envelopes   DirectHist=Envelopes   NLStatic=LastStep   BaseReacX=0   BaseReacY=0   BaseReacZ=0   Combo=Correspondence   Steady=Envelopes _
        SteadyOpt=Phases   PSD=RMS   Multistep=Envelopes
 
TABLE:  "NAMED SETS - DATABASE TABLES 2 - SELECTIONS"
   DBNamedSet=DB01   SelectType=Table   Selection="Joint Displacements"
   DBNamedSet=DB01   SelectType=LoadPattern   Selection=DEAD
   DBNamedSet=DB01   SelectType=LoadCase   Selection=DEAD
   DBNamedSet=DB01   SelectType=LoadCase   Selection=MODAL
   DBNamedSet=DB01   SelectType=LoadCase   Selection=ACASE1
   DBNamedSet=DB01   SelectType=Combo   Selection=COMB1
 
TABLE:  "OPTIONS - COLORS - DISPLAY"
   DeviceType=Screen   Points=Yellow   LinesFrame=Yellow   LinesFrmDL=Yellow   LinesCable=Green   LinesTendon=Green   SpringLinks=Green   Restraints=Green   Releases=Green   Axes=Cyan   Text=Green   ShadowLines=Gray8Dark _
        GuideLines=Gray8Dark   Highlight=Red   Selection=White   AreaFillBot=Red   AreaFillTop=Yellow   AreaFillSd=Red   AreaEdge=DarkRed   SolidF1=Red   SolidF2=Blue   SolidF3=Green   SolidF4=Yellow   SolidF5=White   SolidF6=Cyan _
        SolidEdge=DarkRed   Floor=Gray4   Background=Black   BGLowLeft=Black   BGLowRight=Black   BGUpRight=Black   Darkness=0
   DeviceType=Printer   Points=Gray8Dark   LinesFrame=Black   LinesFrmDL=Gray4   LinesCable=Black   LinesTendon=Black   SpringLinks=Gray8Dark   Restraints=Gray8Dark   Releases=Gray4   Axes=Black   Text=Black   ShadowLines=Gray4 _
        GuideLines=Gray4   Highlight=Black   Selection=Black   AreaFillBot=Gray4   AreaFillTop=Gray8Dark   AreaFillSd=Gray4   AreaEdge=Black   SolidF1=Gray1Light   SolidF2=Gray2   SolidF3=Gray3   SolidF4=Gray4   SolidF5=Gray5 _
        SolidF6=Gray6   SolidEdge=Black   Floor=Gray4   Background=White   BGLowLeft=White   BGLowRight=White   BGUpRight=White   Darkness=0.5
   DeviceType="Color Printer"   Points=Blue   LinesFrame=Blue   LinesFrmDL=Blue   LinesCable=Green   LinesTendon=Green   SpringLinks=Green   Restraints=Green   Releases=Green   Axes=Cyan   Text=Black   ShadowLines=Gray8Dark _
        GuideLines=Gray8Dark   Highlight=Red   Selection=10504778   AreaFillBot=Red   AreaFillTop=16744703   AreaFillSd=Red   AreaEdge=DarkRed   SolidF1=Red   SolidF2=Blue   SolidF3=Green   SolidF4=Yellow   SolidF5=White   SolidF6=Cyan _
        SolidEdge=DarkRed   Floor=Gray4   Background=White   BGLowLeft=White   BGLowRight=White   BGUpRight=White   Darkness=0.5
 
TABLE:  "OPTIONS - COLORS - OUTPUT"
   DeviceType=Screen   Contour1=13107400   Contour2=6553828   Contour3=Red   Contour4=16639   Contour5=Orange   Contour6=43775   Contour7=54527   Contour8=Yellow   Contour9=65408   Contour10=Green   Contour11=8453888   Contour12=Cyan _
        Contour13=16755200   Contour14=16733440   Contour15=Blue   Transpare=0.5   Ratio1=Cyan   Ratio2=Green   Ratio3=Yellow   Ratio4=Orange   Ratio5=Red   RatioNotD=Gray4   RatioNotC=Red   RatioVal1=0.5   RatioVal2=0.7   RatioVal3=0.9 _
        RatioVal4=1   DFillPos=Blue   DFillNeg=Red   DFillRPos=Green   DFillRNeg=Green
   DeviceType=Printer   Contour1=Black   Contour2=3158064   Contour3=4210752   Contour4=5263440   Contour5=6316128   Contour6=7368816   Contour7=Gray8Dark   Contour8=Gray7   Contour9=Gray6   Contour10=Gray5   Contour11=Gray4 _
        Contour12=Gray3   Contour13=Gray2   Contour14=Gray1Light   Contour15=White   Transpare=0   Ratio1=Gray2   Ratio2=Gray4   Ratio3=Gray8Dark   Ratio4=4210752   Ratio5=Black   RatioNotD=Gray4   RatioNotC=Black   RatioVal1=0.5 _
        RatioVal2=0.7   RatioVal3=0.9   RatioVal4=1   DFillPos=Gray8Dark   DFillNeg=Gray8Dark   DFillRPos=4210752   DFillRNeg=4210752
   DeviceType="Color Printer"   Contour1=13107400   Contour2=6553828   Contour3=Red   Contour4=16639   Contour5=Orange   Contour6=43775   Contour7=54527   Contour8=Yellow   Contour9=65408   Contour10=Green   Contour11=8453888 _
        Contour12=Cyan   Contour13=16755200   Contour14=16733440   Contour15=Blue   Transpare=0   Ratio1=Cyan   Ratio2=Green   Ratio3=Yellow   Ratio4=Orange   Ratio5=Red   RatioNotD=Gray4   RatioNotC=Red   RatioVal1=0.5   RatioVal2=0.7 _
        RatioVal3=0.9   RatioVal4=1   DFillPos=Blue   DFillNeg=Red   DFillRPos=Green   DFillRNeg=Green
 
TABLE:  "OVERWRITES - STEEL DESIGN - AISC 360-10"
   Frame=1   DesignSect="Program Determined"   FrameType="Program Determined"   Fy=0   RLLF=0   AreaRatio=0   XLMajor=0   XLMinor=0   XLLTB=0   K1Major=0   K1Minor=0   K2Major=0   K2Minor=0   KLTB=0   CmMajor=0   CmMinor=0   Cb=0 _
        B1Major=0   B1Minor=0   B2Major=0   B2Minor=0   HSSReduceT="Program Determined"   HSSWelding="Program Determined"   Omega0=0   Ry=0   Pnc=0   Pnt=0   Mn3=0   Mn2=0   Vn2=0   Vn3=0   CheckDefl="Program Determined" _
        DeflType="Program Determined"   DLRat=0   SDLAndLLRat=0   LLRat=0   TotalRat=0   NetRat=0   DLAbs=0   SDLAndLLAbs=0   LLAbs=0   TotalAbs=0   NetAbs=0   SpecCamber=0   DCLimit=0
   Frame=2   DesignSect="Program Determined"   FrameType="Program Determined"   Fy=0   RLLF=0   AreaRatio=0   XLMajor=0   XLMinor=0   XLLTB=0   K1Major=0   K1Minor=0   K2Major=0   K2Minor=0   KLTB=0   CmMajor=0   CmMinor=0   Cb=0 _
        B1Major=0   B1Minor=0   B2Major=0   B2Minor=0   HSSReduceT="Program Determined"   HSSWelding="Program Determined"   Omega0=0   Ry=0   Pnc=0   Pnt=0   Mn3=0   Mn2=0   Vn2=0   Vn3=0   CheckDefl="Program Determined" _
        DeflType="Program Determined"   DLRat=0   SDLAndLLRat=0   LLRat=0   TotalRat=0   NetRat=0   DLAbs=0   SDLAndLLAbs=0   LLAbs=0   TotalAbs=0   NetAbs=0   SpecCamber=0   DCLimit=0
   Frame=3   DesignSect="Program Determined"   FrameType="Program Determined"   Fy=0   RLLF=0   AreaRatio=0   XLMajor=0   XLMinor=0   XLLTB=0   K1Major=0   K1Minor=0   K2Major=0   K2Minor=0   KLTB=0   CmMajor=0   CmMinor=0   Cb=0 _
        B1Major=0   B1Minor=0   B2Major=0   B2Minor=0   HSSReduceT="Program Determined"   HSSWelding="Program Determined"   Omega0=0   Ry=0   Pnc=0   Pnt=0   Mn3=0   Mn2=0   Vn2=0   Vn3=0   CheckDefl="Program Determined" _
        DeflType="Program Determined"   DLRat=0   SDLAndLLRat=0   LLRat=0   TotalRat=0   NetRat=0   DLAbs=0   SDLAndLLAbs=0   LLAbs=0   TotalAbs=0   NetAbs=0   SpecCamber=0   DCLimit=0
   Frame=4   DesignSect="Program Determined"   FrameType="Program Determined"   Fy=0   RLLF=0   AreaRatio=0   XLMajor=0   XLMinor=0   XLLTB=0   K1Major=0   K1Minor=0   K2Major=0   K2Minor=0   KLTB=0   CmMajor=0   CmMinor=0   Cb=0 _
        B1Major=0   B1Minor=0   B2Major=0   B2Minor=0   HSSReduceT="Program Determined"   HSSWelding="Program Determined"   Omega0=0   Ry=0   Pnc=0   Pnt=0   Mn3=0   Mn2=0   Vn2=0   Vn3=0   CheckDefl="Program Determined" _
        DeflType="Program Determined"   DLRat=0   SDLAndLLRat=0   LLRat=0   TotalRat=0   NetRat=0   DLAbs=0   SDLAndLLAbs=0   LLAbs=0   TotalAbs=0   NetAbs=0   SpecCamber=0   DCLimit=0
   Frame=5   DesignSect="Program Determined"   FrameType="Program Determined"   Fy=0   RLLF=0   AreaRatio=0   XLMajor=0   XLMinor=0   XLLTB=0   K1Major=0   K1Minor=0   K2Major=0   K2Minor=0   KLTB=0   CmMajor=0   CmMinor=0   Cb=0 _
        B1Major=0   B1Minor=0   B2Major=0   B2Minor=0   HSSReduceT="Program Determined"   HSSWelding="Program Determined"   Omega0=0   Ry=0   Pnc=0   Pnt=0   Mn3=0   Mn2=0   Vn2=0   Vn3=0   CheckDefl="Program Determined" _
        DeflType="Program Determined"   DLRat=0   SDLAndLLRat=0   LLRat=0   TotalRat=0   NetRat=0   DLAbs=0   SDLAndLLAbs=0   LLAbs=0   TotalAbs=0   NetAbs=0   SpecCamber=0   DCLimit=0
   Frame=6   DesignSect="Program Determined"   FrameType="Program Determined"   Fy=0   RLLF=0   AreaRatio=0   XLMajor=0   XLMinor=0   XLLTB=0   K1Major=0   K1Minor=0   K2Major=0   K2Minor=0   KLTB=0   CmMajor=0   CmMinor=0   Cb=0 _
        B1Major=0   B1Minor=0   B2Major=0   B2Minor=0   HSSReduceT="Program Determined"   HSSWelding="Program Determined"   Omega0=0   Ry=0   Pnc=0   Pnt=0   Mn3=0   Mn2=0   Vn2=0   Vn3=0   CheckDefl="Program Determined" _
        DeflType="Program Determined"   DLRat=0   SDLAndLLRat=0   LLRat=0   TotalRat=0   NetRat=0   DLAbs=0   SDLAndLLAbs=0   LLAbs=0   TotalAbs=0   NetAbs=0   SpecCamber=0   DCLimit=0
   Frame=7   DesignSect="Program Determined"   FrameType="Program Determined"   Fy=0   RLLF=0   AreaRatio=0   XLMajor=0   XLMinor=0   XLLTB=0   K1Major=0   K1Minor=0   K2Major=0   K2Minor=0   KLTB=0   CmMajor=0   CmMinor=0   Cb=0 _
        B1Major=0   B1Minor=0   B2Major=0   B2Minor=0   HSSReduceT="Program Determined"   HSSWelding="Program Determined"   Omega0=0   Ry=0   Pnc=0   Pnt=0   Mn3=0   Mn2=0   Vn2=0   Vn3=0   CheckDefl="Program Determined" _
        DeflType="Program Determined"   DLRat=0   SDLAndLLRat=0   LLRat=0   TotalRat=0   NetRat=0   DLAbs=0   SDLAndLLAbs=0   LLAbs=0   TotalAbs=0   NetAbs=0   SpecCamber=0   DCLimit=0
   Frame=8   DesignSect="Program Determined"   FrameType="Program Determined"   Fy=0   RLLF=0   AreaRatio=0   XLMajor=0   XLMinor=0   XLLTB=0   K1Major=0   K1Minor=0   K2Major=0   K2Minor=0   KLTB=0   CmMajor=0   CmMinor=0   Cb=0 _
        B1Major=0   B1Minor=0   B2Major=0   B2Minor=0   HSSReduceT="Program Determined"   HSSWelding="Program Determined"   Omega0=0   Ry=0   Pnc=0   Pnt=0   Mn3=0   Mn2=0   Vn2=0   Vn3=0   CheckDefl="Program Determined" _
        DeflType="Program Determined"   DLRat=0   SDLAndLLRat=0   LLRat=0   TotalRat=0   NetRat=0   DLAbs=0   SDLAndLLAbs=0   LLAbs=0   TotalAbs=0   NetAbs=0   SpecCamber=0   DCLimit=0
   Frame=9   DesignSect="Program Determined"   FrameType="Program Determined"   Fy=0   RLLF=0   AreaRatio=0   XLMajor=0   XLMinor=0   XLLTB=0   K1Major=0   K1Minor=0   K2Major=0   K2Minor=0   KLTB=0   CmMajor=0   CmMinor=0   Cb=0 _
        B1Major=0   B1Minor=0   B2Major=0   B2Minor=0   HSSReduceT="Program Determined"   HSSWelding="Program Determined"   Omega0=0   Ry=0   Pnc=0   Pnt=0   Mn3=0   Mn2=0   Vn2=0   Vn3=0   CheckDefl="Program Determined" _
        DeflType="Program Determined"   DLRat=0   SDLAndLLRat=0   LLRat=0   TotalRat=0   NetRat=0   DLAbs=0   SDLAndLLAbs=0   LLAbs=0   TotalAbs=0   NetAbs=0   SpecCamber=0   DCLimit=0
   Frame=10   DesignSect="Program Determined"   FrameType="Program Determined"   Fy=0   RLLF=0   AreaRatio=0   XLMajor=0   XLMinor=0   XLLTB=0   K1Major=0   K1Minor=0   K2Major=0   K2Minor=0   KLTB=0   CmMajor=0   CmMinor=0   Cb=0 _
        B1Major=0   B1Minor=0   B2Major=0   B2Minor=0   HSSReduceT="Program Determined"   HSSWelding="Program Determined"   Omega0=0   Ry=0   Pnc=0   Pnt=0   Mn3=0   Mn2=0   Vn2=0   Vn3=0   CheckDefl="Program Determined" _
        DeflType="Program Determined"   DLRat=0   SDLAndLLRat=0   LLRat=0   TotalRat=0   NetRat=0   DLAbs=0   SDLAndLLAbs=0   LLAbs=0   TotalAbs=0   NetAbs=0   SpecCamber=0   DCLimit=0
   Frame=11   DesignSect="Program Determined"   FrameType="Program Determined"   Fy=0   RLLF=0   AreaRatio=0   XLMajor=0   XLMinor=0   XLLTB=0   K1Major=0   K1Minor=0   K2Major=0   K2Minor=0   KLTB=0   CmMajor=0   CmMinor=0   Cb=0 _
        B1Major=0   B1Minor=0   B2Major=0   B2Minor=0   HSSReduceT="Program Determined"   HSSWelding="Program Determined"   Omega0=0   Ry=0   Pnc=0   Pnt=0   Mn3=0   Mn2=0   Vn2=0   Vn3=0   CheckDefl="Program Determined" _
        DeflType="Program Determined"   DLRat=0   SDLAndLLRat=0   LLRat=0   TotalRat=0   NetRat=0   DLAbs=0   SDLAndLLAbs=0   LLAbs=0   TotalAbs=0   NetAbs=0   SpecCamber=0   DCLimit=0
   Frame=12   DesignSect="Program Determined"   FrameType="Program Determined"   Fy=0   RLLF=0   AreaRatio=0   XLMajor=0   XLMinor=0   XLLTB=0   K1Major=0   K1Minor=0   K2Major=0   K2Minor=0   KLTB=0   CmMajor=0   CmMinor=0   Cb=0 _
        B1Major=0   B1Minor=0   B2Major=0   B2Minor=0   HSSReduceT="Program Determined"   HSSWelding="Program Determined"   Omega0=0   Ry=0   Pnc=0   Pnt=0   Mn3=0   Mn2=0   Vn2=0   Vn3=0   CheckDefl="Program Determined" _
        DeflType="Program Determined"   DLRat=0   SDLAndLLRat=0   LLRat=0   TotalRat=0   NetRat=0   DLAbs=0   SDLAndLLAbs=0   LLAbs=0   TotalAbs=0   NetAbs=0   SpecCamber=0   DCLimit=0
   Frame=13   DesignSect="Program Determined"   FrameType="Program Determined"   Fy=0   RLLF=0   AreaRatio=0   XLMajor=0   XLMinor=0   XLLTB=0   K1Major=0   K1Minor=0   K2Major=0   K2Minor=0   KLTB=0   CmMajor=0   CmMinor=0   Cb=0 _
        B1Major=0   B1Minor=0   B2Major=0   B2Minor=0   HSSReduceT="Program Determined"   HSSWelding="Program Determined"   Omega0=0   Ry=0   Pnc=0   Pnt=0   Mn3=0   Mn2=0   Vn2=0   Vn3=0   CheckDefl="Program Determined" _
        DeflType="Program Determined"   DLRat=0   SDLAndLLRat=0   LLRat=0   TotalRat=0   NetRat=0   DLAbs=0   SDLAndLLAbs=0   LLAbs=0   TotalAbs=0   NetAbs=0   SpecCamber=0   DCLimit=0
   Frame=14   DesignSect="Program Determined"   FrameType="Program Determined"   Fy=0   RLLF=0   AreaRatio=0   XLMajor=0   XLMinor=0   XLLTB=0   K1Major=0   K1Minor=0   K2Major=0   K2Minor=0   KLTB=0   CmMajor=0   CmMinor=0   Cb=0 _
        B1Major=0   B1Minor=0   B2Major=0   B2Minor=0   HSSReduceT="Program Determined"   HSSWelding="Program Determined"   Omega0=0   Ry=0   Pnc=0   Pnt=0   Mn3=0   Mn2=0   Vn2=0   Vn3=0   CheckDefl="Program Determined" _
        DeflType="Program Determined"   DLRat=0   SDLAndLLRat=0   LLRat=0   TotalRat=0   NetRat=0   DLAbs=0   SDLAndLLAbs=0   LLAbs=0   TotalAbs=0   NetAbs=0   SpecCamber=0   DCLimit=0
   Frame=15   DesignSect="Program Determined"   FrameType="Program Determined"   Fy=0   RLLF=0   AreaRatio=0   XLMajor=0   XLMinor=0   XLLTB=0   K1Major=0   K1Minor=0   K2Major=0   K2Minor=0   KLTB=0   CmMajor=0   CmMinor=0   Cb=0 _
        B1Major=0   B1Minor=0   B2Major=0   B2Minor=0   HSSReduceT="Program Determined"   HSSWelding="Program Determined"   Omega0=0   Ry=0   Pnc=0   Pnt=0   Mn3=0   Mn2=0   Vn2=0   Vn3=0   CheckDefl="Program Determined" _
        DeflType="Program Determined"   DLRat=0   SDLAndLLRat=0   LLRat=0   TotalRat=0   NetRat=0   DLAbs=0   SDLAndLLAbs=0   LLAbs=0   TotalAbs=0   NetAbs=0   SpecCamber=0   DCLimit=0
   Frame=16   DesignSect="Program Determined"   FrameType="Program Determined"   Fy=0   RLLF=0   AreaRatio=0   XLMajor=0   XLMinor=0   XLLTB=0   K1Major=0   K1Minor=0   K2Major=0   K2Minor=0   KLTB=0   CmMajor=0   CmMinor=0   Cb=0 _
        B1Major=0   B1Minor=0   B2Major=0   B2Minor=0   HSSReduceT="Program Determined"   HSSWelding="Program Determined"   Omega0=0   Ry=0   Pnc=0   Pnt=0   Mn3=0   Mn2=0   Vn2=0   Vn3=0   CheckDefl="Program Determined" _
        DeflType="Program Determined"   DLRat=0   SDLAndLLRat=0   LLRat=0   TotalRat=0   NetRat=0   DLAbs=0   SDLAndLLAbs=0   LLAbs=0   TotalAbs=0   NetAbs=0   SpecCamber=0   DCLimit=0
   Frame=17   DesignSect="Program Determined"   FrameType="Program Determined"   Fy=0   RLLF=0   AreaRatio=0   XLMajor=0   XLMinor=0   XLLTB=0   K1Major=0   K1Minor=0   K2Major=0   K2Minor=0   KLTB=0   CmMajor=0   CmMinor=0   Cb=0 _
        B1Major=0   B1Minor=0   B2Major=0   B2Minor=0   HSSReduceT="Program Determined"   HSSWelding="Program Determined"   Omega0=0   Ry=0   Pnc=0   Pnt=0   Mn3=0   Mn2=0   Vn2=0   Vn3=0   CheckDefl="Program Determined" _
        DeflType="Program Determined"   DLRat=0   SDLAndLLRat=0   LLRat=0   TotalRat=0   NetRat=0   DLAbs=0   SDLAndLLAbs=0   LLAbs=0   TotalAbs=0   NetAbs=0   SpecCamber=0   DCLimit=0
   Frame=18   DesignSect="Program Determined"   FrameType="Program Determined"   Fy=0   RLLF=0   AreaRatio=0   XLMajor=0   XLMinor=0   XLLTB=0   K1Major=0   K1Minor=0   K2Major=0   K2Minor=0   KLTB=0   CmMajor=0   CmMinor=0   Cb=0 _
        B1Major=0   B1Minor=0   B2Major=0   B2Minor=0   HSSReduceT="Program Determined"   HSSWelding="Program Determined"   Omega0=0   Ry=0   Pnc=0   Pnt=0   Mn3=0   Mn2=0   Vn2=0   Vn3=0   CheckDefl="Program Determined" _
        DeflType="Program Determined"   DLRat=0   SDLAndLLRat=0   LLRat=0   TotalRat=0   NetRat=0   DLAbs=0   SDLAndLLAbs=0   LLAbs=0   TotalAbs=0   NetAbs=0   SpecCamber=0   DCLimit=0
   Frame=19   DesignSect="Program Determined"   FrameType="Program Determined"   Fy=0   RLLF=0   AreaRatio=0   XLMajor=0   XLMinor=0   XLLTB=0   K1Major=0   K1Minor=0   K2Major=0   K2Minor=0   KLTB=0   CmMajor=0   CmMinor=0   Cb=0 _
        B1Major=0   B1Minor=0   B2Major=0   B2Minor=0   HSSReduceT="Program Determined"   HSSWelding="Program Determined"   Omega0=0   Ry=0   Pnc=0   Pnt=0   Mn3=0   Mn2=0   Vn2=0   Vn3=0   CheckDefl="Program Determined" _
        DeflType="Program Determined"   DLRat=0   SDLAndLLRat=0   LLRat=0   TotalRat=0   NetRat=0   DLAbs=0   SDLAndLLAbs=0   LLAbs=0   TotalAbs=0   NetAbs=0   SpecCamber=0   DCLimit=0
   Frame=20   DesignSect="Program Determined"   FrameType="Program Determined"   Fy=0   RLLF=0   AreaRatio=0   XLMajor=0   XLMinor=0   XLLTB=0   K1Major=0   K1Minor=0   K2Major=0   K2Minor=0   KLTB=0   CmMajor=0   CmMinor=0   Cb=0 _
        B1Major=0   B1Minor=0   B2Major=0   B2Minor=0   HSSReduceT="Program Determined"   HSSWelding="Program Determined"   Omega0=0   Ry=0   Pnc=0   Pnt=0   Mn3=0   Mn2=0   Vn2=0   Vn3=0   CheckDefl="Program Determined" _
        DeflType="Program Determined"   DLRat=0   SDLAndLLRat=0   LLRat=0   TotalRat=0   NetRat=0   DLAbs=0   SDLAndLLAbs=0   LLAbs=0   TotalAbs=0   NetAbs=0   SpecCamber=0   DCLimit=0
# ... 111 like lines cut
 
TABLE:  "PREFERENCES - ALUMINUM DESIGN - AA-ASD 2000"
   THDesign=Envelopes   FrameType="Moment Frame"   SRatioLimit=1   MaxIter=1   LatFact=1.33333333333333   UseLatFact=No   Bridge=No
 
TABLE:  "PREFERENCES - COLD FORMED DESIGN - AISI-ASD96"
   THDesign=Envelopes   FrameType="Braced Frame"   SRatioLimit=1   MaxIter=1   OmegaBS=1.67   OmegaBUS=1.67   OmegaBLTB=1.67   OmegaVS=1.67   OmegaVNS=1.5   OmegaT=1.67   OmegaC=1.8
 
TABLE:  "PREFERENCES - CONCRETE DESIGN - ACI 318-14"
   THDesign=Envelopes   NumCurves=24   NumPoints=11   MinEccen=Yes   PatLLF=0.75   UFLimit=0.95   SeisCat=D   Rho=1   Sds=0.5   PhiT=0.9   PhiCTied=0.65   PhiCSpiral=0.75   PhiV=0.75   PhiVSeismic=0.6   PhiVJoint=0.85
 
TABLE:  "PREFERENCES - DIMENSIONAL"
   MergeTol=0.001   FineGrid=0.25   Nudge=0.25   SelectTol=3   SnapTol=12   SLineThick=1   PLineThick=4   MaxFont=8   MinFont=3   AutoZoom=10   ShrinkFact=70   TextFileLen=240
 
TABLE:  "PREFERENCES - STEEL DESIGN - AISC 360-10"
   THDesign=Envelopes   FrameType=SMF   PatLLF=0.75   SRatioLimit=0.95   MaxIter=1   SDC=D   SeisCode=Yes   SeisLoad=Yes   ImpFactor=1   SystemRho=1   SystemSds=0.5   SystemR=8   SystemCd=5.5   Omega0=3   Provision=LRFD _
        AMethod="Direct Analysis"   SOMethod="General 2nd Order"   SRMethod="Tau-b Fixed"   NLCoeff=0.002   PhiB=0.9   PhiC=0.9   PhiTY=0.9   PhiTF=0.75   PhiV=0.9   PhiVRolledI=1   PhiVT=0.9   PlugWeld=Yes   HSSWelding=ERW   HSSReduceT=No _
        CheckDefl=No   DLRat=120   SDLAndLLRat=120   LLRat=360   TotalRat=240   NetRat=240
 
TABLE:  "PROGRAM CONTROL"
   ProgramName=SAP2000   Version=20.1.0   CurrUnits="KN, m, C"   SteelCode="AISC 360-10"   ConcCode="ACI 318-14"   AlumCode="AA-ASD 2000"   ColdCode=AISI-ASD96   RegenHinge=Yes
 
TABLE:  "PROJECT INFORMATION"
   Item="Company Name"
   Item="Client Name"
   Item="Project Name"
   Item="Project Number"
   Item="Model Name"
   Item="Model Description"
   Item="Revision Number"
   Item="Frame Type"
   Item=Engineer
   Item=Checker
   Item=Supervisor
   Item="Issue Code"
   Item="Design Code"
 
TABLE:  "REBAR SIZES"
   RebarID=#2   Area=3.2258E-05   Diameter=0.00635
   RebarID=#3   Area=7.09675996154547E-05   Diameter=0.009525
   RebarID=#4   Area=0.000129032001922727   Diameter=0.0127
   RebarID=#5   Area=0.000199999601538181   Diameter=0.015875
   RebarID=#6   Area=0.000283870398461819   Diameter=0.01905
   RebarID=#7   Area=0.000387096015381813   Diameter=0.022225
   RebarID=#8   Area=0.000509676413843632   Diameter=0.0254
   RebarID=#9   Area=0.00064516   Diameter=0.0286512005329132
   RebarID=#10   Area=0.00081935318769455   Diameter=0.0322579995155334
   RebarID=#11   Area=0.00100644956308365   Diameter=0.0358139991521835
   RebarID=#14   Area=0.00145161   Diameter=0.0430021989583969
   RebarID=#18   Area=0.00258064   Diameter=0.0573277992248535
   RebarID=10M   Area=0.000100000002655387   Diameter=0.011300000667572
   RebarID=15M   Area=0.000200000005310774   Diameter=0.0159999999403954
   RebarID=20M   Area=0.000300000017579794   Diameter=0.0194999997854233
   RebarID=25M   Area=0.000500000022890568   Diameter=0.0252000016093254
   RebarID=30M   Area=0.000700000008974075   Diameter=0.0299000008821487
   RebarID=35M   Area=0.00100000004578114   Diameter=0.0357000011444092
   RebarID=45M   Area=0.00150000010712624   Diameter=0.0437000003576279
   RebarID=55M   Area=0.00250000007599831   Diameter=0.0564000033855438
   RebarID=6d   Area=2.83000004149973E-05   Diameter=0.006000000166893
   RebarID=8d   Area=5.02999995571375E-05   Diameter=0.00799999997019768
   RebarID=10d   Area=7.85000013634562E-05   Diameter=0.00999999977350235
   RebarID=12d   Area=0.000113000009249449   Diameter=0.012000000333786
   RebarID=14d   Area=0.000154000010818839   Diameter=0.0140000008940697
   RebarID=16d   Area=0.000201000015431643   Diameter=0.0159999999403954
   RebarID=20d   Area=0.000314000005453825   Diameter=0.0199999995470047
   RebarID=25d   Area=0.000491000008711815   Diameter=0.0250000001907349
   RebarID=26d   Area=0.000531000029001236   Diameter=0.0259999997138977
   RebarID=28d   Area=0.000616000043275356   Diameter=0.0280000017881393
   RebarID=N12   Area=0.000113000009249449   Diameter=0.012000000333786
   RebarID=N16   Area=0.000201000015431643   Diameter=0.0159999999403954
   RebarID=N20   Area=0.000314000005453825   Diameter=0.0199999995470047
   RebarID=N24   Area=0.000452000036997795   Diameter=0.024000000667572
   RebarID=N28   Area=0.000616000043275356   Diameter=0.0280000017881393
   RebarID=N32   Area=0.00080400006172657   Diameter=0.0319999998807907
   RebarID=N36   Area=0.00102000001747131   Diameter=0.036000001001358
 
TABLE:  "TABLES AUTOMATICALLY SAVED AFTER ANALYSIS"
   SaveFile=Yes   FileName=test2.xml   NamedSet=DB01   Group=ALL
 
END TABLE DATA
